test/TEST190523/losses_with_pv.csv
Element,  Total(W), Total(var),  I2R(W), I2X(var), No-load(W), No-load(var)
Line.MV3PMAI0, 3.662366, 9.128404, 3.662366, 9.128404, 0, 0
Line.MV3PMAI1, 8.233955, 20.54225, 8.233955, 20.54225, 0, 0
Line.MV3PMAI2, 84.0544, 209.7038, 84.0544, 209.7038, 0, 0
Line.MV3PMAI3, 3.51705, 8.774374, 3.51705, 8.774374, 0, 0
Line.MV3PMAI4, 88.86836, 225.3085, 88.86836, 225.3085, 0, 0
Line.MV1PMAI5, 0.0009972708, -3.79388, 0.0009972708, -3.79388, 0, 0
Line.MV3PMAI6, 15.83586, 39.7929, 15.83586, 39.7929, 0, 0
Line.MV1PMAI7, 0.04330008, -1.52514, 0.04330008, -1.52514, 0, 0
Line.MV1PMAI8, -1.128609E-007, -2.630653, -1.128609E-007, -2.630653, 0, 0
Line.MV3PMAI9, 80.36505, 112.2312, 80.36505, 112.2312, 0, 0
Line.MV3PMAI10, 47.3267, 107.9958, 47.3267, 107.9958, 0, 0
Line.MV3PMAI11, 0.0003092741, -7.461378, 0.0003092741, -7.461378, 0, 0
Line.MV3PMAI12, 9.209143, -11.26398, 9.209143, -11.26398, 0, 0
Line.MV3PMAI13, 4.604505, -5.632285, 4.604505, -5.632285, 0, 0
Line.MV1PMAI14, 0.1121842, -3.950887, 0.1121842, -3.950887, 0, 0
Line.MV3PMAI15, 38.58725, 88.07104, 38.58725, 88.07104, 0, 0
Line.MV3PMAI16, -6.434284E-006, -0.4977811, -6.434284E-006, -0.4977811, 0, 0
Line.MV1PMAI17, 0.0004733678, -21.1657, 0.0004733678, -21.1657, 0, 0
Line.MV1PMAI18, 0.07978956, -2.809531, 0.07978956, -2.809531, 0, 0
Line.MV1PMAI19, 4.710984E-006, -23.49162, 4.710984E-006, -23.49162, 0, 0
Line.MV3PMAI20, 0.0004216902, -152.7842, 0.0004216902, -152.7842, 0, 0
Line.MV3PMAI21, 4.604637, -5.631701, 4.604637, -5.631701, 0, 0
Line.MV3PMAI22, 0.9876224, 0.7969597, 0.9876224, 0.7969597, 0, 0
Line.MV3PMAI23, 0.01527378, -13.13087, 0.01527378, -13.13087, 0, 0
Line.MV3PMAI24, 0.06413141, -13.94292, 0.06413141, -13.94292, 0, 0
Line.MV3PMAI25, 15.2198, 35.59775, 15.2198, 35.59775, 0, 0
Line.MV3PMAI26, 0.1083442, -23.55055, 0.1083442, -23.55055, 0, 0
Line.MV3PMAI27, 0.1167759, -25.85372, 0.1167759, -25.85372, 0, 0
Line.MV3PMAI28, 0.03744379, -26.1639, 0.03744379, -26.1639, 0, 0
Line.MV1PMAI29, 0.007799435, -9.725431, 0.007799435, -9.725431, 0, 0
Line.MV1PMAI30, 0.0009109279, -56.3308, 0.0009109279, -56.3308, 0, 0
Line.MV1PMAI31, 0.06497896, -2.470171, 0.06497896, -2.470171, 0, 0
Line.MV1PMAI32, 0.0982306, -4.020312, 0.0982306, -4.020312, 0, 0
Line.MV3PMAI33, 7.009859E-007, -23.32851, 7.009859E-007, -23.32851, 0, 0
Line.MV3PMAI34, 0.01178843, -96.44737, 0.01178843, -96.44737, 0, 0
Line.MV1PMAI35, -1.425318E-007, -0.8982712, -1.425318E-007, -0.8982712, 0, 0
Line.MV1PMAI36, 2.126108E-005, -21.57636, 2.126108E-005, -21.57636, 0, 0
Line.MV1PMAI37, 0.007658889, -23.09131, 0.007658889, -23.09131, 0, 0
Line.MV1PMAI38, 0.03392238, -90.30053, 0.03392238, -90.30053, 0, 0
Line.MV3PMAI39, 27.59402, 64.83876, 27.59402, 64.83876, 0, 0
Line.MV3PMAI40, 38.86304, 91.3204, 38.86304, 91.3204, 0, 0
Line.MV3PMAI41, -7.949828E-007, -13.871, -7.949828E-007, -13.871, 0, 0
Line.MV3PMAI42, 40.84602, 95.9828, 40.84602, 95.9828, 0, 0
Line.MV3PMAI43, 47.60254, 111.6987, 47.60254, 111.6987, 0, 0
Line.MV3PMAI44, 0.0001118952, -15.9425, 0.0001118952, -15.9425, 0, 0
Line.MV3PMAI45, 52.88843, 126.8594, 52.88843, 126.8594, 0, 0
Line.MV3PMAI46, -1.412598E-006, -11.4803, -1.412598E-006, -11.4803, 0, 0
Line.MV3PMAI47, -1.356372E-006, -12.03061, -1.356372E-006, -12.03061, 0, 0
Line.MV3PMAI48, 3.37495E-007, -11.45941, 3.37495E-007, -11.45941, 0, 0
Line.MV3PMAI49, 0.000646255, -376.188, 0.000646255, -376.188, 0, 0
Line.MV3PMAI50, 5.099688, 12.22815, 5.099688, 12.22815, 0, 0
Line.MV3PMAI51, 52.66811, 126.2911, 52.66811, 126.2911, 0, 0
Line.MV3PMAI52, -4.574922E-007, -13.0936, -4.574922E-007, -13.0936, 0, 0
Line.MV3PMAI53, 0.0001244931, -25.49636, 0.0001244931, -25.49636, 0, 0
Line.MV3PMAI54, 0.007201585, -21.29625, 0.007201585, -21.29625, 0, 0
Line.MV3PMAI55, 40.34459, 96.82892, 40.34459, 96.82892, 0, 0
Line.MV3PMAI56, 0.00748698, -22.10558, 0.00748698, -22.10558, 0, 0
Line.MV3PMAI57, 46.75935, 112.2277, 46.75935, 112.2277, 0, 0
Line.MV3PMAI58, 0.01038032, -30.59003, 0.01038032, -30.59003, 0, 0
Line.MV3PMAI59, 0.008762018, -25.76932, 0.008762018, -25.76932, 0, 0
Line.MV1PMAI60, 0.07281372, -4.445171, 0.07281372, -4.445171, 0, 0
Line.MV3PMAI61, 1.079632, 2.602203, 1.079632, 2.602203, 0, 0
Line.MV1PMAI62, 2.127535E-005, -1.31519, 2.127535E-005, -1.31519, 0, 0
Line.MV3PMAI63, 39.91813, 96.21567, 39.91813, 96.21567, 0, 0
Line.MV3PMAI64, 51.6126, 122.0974, 51.6126, 122.0974, 0, 0
Line.MV3PMAI65, 12.27967, 29.59754, 12.27967, 29.59754, 0, 0
Line.MV3PMAI66, 0.0005441245, -25.76953, 0.0005441245, -25.76953, 0, 0
Line.MV3PMAI67, 0.0005104419, -23.8975, 0.0005104419, -23.8975, 0, 0
Line.MV1PMAI68, 0.002832265, -0.135409, 0.002832265, -0.135409, 0, 0
Line.MV3PMAI69, 40.80889, 96.68781, 40.80889, 96.68781, 0, 0
Line.MV1PMAI70, 0.002735922, -65.45143, 0.002735922, -65.45143, 0, 0
Line.MV1PMAI71, 0.1240361, -7.570981, 0.1240361, -7.570981, 0, 0
Line.MV1PMAI72, 0.1302077, -7.946051, 0.1302077, -7.946051, 0, 0
Line.MV3PMAI73, 0.1142743, -13.07013, 0.1142743, -13.07013, 0, 0
Line.MV3PMAI74, 37.14792, 85.53558, 37.14792, 85.53558, 0, 0
Line.MV3PMAI75, 0.3729144, -503.8736, 0.3729144, -503.8736, 0, 0
Line.MV3PMAI76, 43.19897, 99.80865, 43.19897, 99.80865, 0, 0
Line.MV3PMAI77, 0.0626789, -22.97309, 0.0626789, -22.97309, 0, 0
Line.MV3PMAI78, 16.51758, -4.786831, 16.51758, -4.786831, 0, 0
Line.MV3PMAI79, 8.25867, -2.394317, 8.25867, -2.394317, 0, 0
Line.MV3PMAI80, 0.04269709, -5.663854, 0.04269709, -5.663854, 0, 0
Line.MV3PMAI81, 1.079602, 2.602207, 1.079602, 2.602207, 0, 0
Line.MV3PMAI82, 0.06423941, -100.567, 0.06423941, -100.567, 0, 0
Line.MV3PMAI83, 18.51199, 23.52884, 18.51199, 23.52884, 0, 0
Line.MV3PMAI84, 9.256053, 11.76488, 9.256053, 11.76488, 0, 0
Line.MV3PMAI85, 88.81053, 221.56, 88.81053, 221.56, 0, 0
Line.MV3PMAI86, 9.255981, 11.76417, 9.255981, 11.76417, 0, 0
Line.MV1PMAI87, 0.3917671, -0.7152028, 0.3917671, -0.7152028, 0, 0
Line.MV3PMAI88, 17.02443, 39.15505, 17.02443, 39.15505, 0, 0
Line.MV3PMAI89, 8.258886, -2.39265, 8.258886, -2.39265, 0, 0
Line.MV3PMAI90, 8.837884E-007, -13.04072, 8.837884E-007, -13.04072, 0, 0
Line.MV3PMAI91, 2.182932E-005, -44.14552, 2.182932E-005, -44.14552, 0, 0
Line.MV3PMAI92, 43.53626, 35.13885, 43.53626, 35.13885, 0, 0
Line.MV3PMAI93, 18.07765, 14.52981, 18.07765, 14.52981, 0, 0
Line.MV3PMAI94, 0.001251213, -190.0176, 0.001251213, -190.0176, 0, 0
Line.MV3PMAI95, 10.7848, 8.703767, 10.7848, 8.703767, 0, 0
Line.MV3PMAI96, 21.96185, 17.05577, 21.96185, 17.05577, 0, 0
Line.MV3PMAI97, 36.57402, 28.40708, 36.57402, 28.40708, 0, 0
Line.MV3PMAI98, 0.2254714, -10.05064, 0.2254714, -10.05064, 0, 0
Line.MV1PMAI99, -1.270436E-007, -4.355735, -1.270436E-007, -4.355735, 0, 0
Line.MV3PMAI100, 32.1327, 19.27, 32.1327, 19.27, 0, 0
Line.MV3PMAI101, 30.26391, 17.43313, 30.26391, 17.43313, 0, 0
Line.MV1PMAI102, 0.02223299, -0.108295, 0.02223299, -0.108295, 0, 0
Line.MV1PMAI103, 1.091378, -5.315778, 1.091378, -5.315778, 0, 0
Line.MV1PMAI104, 0.02154357, -0.1070462, 0.02154357, -0.1070462, 0, 0
Line.MV1PMAI105, 0.0222331, -0.108288, 0.0222331, -0.108288, 0, 0
Line.MV1PMAI106, 0.04075728, -0.2170175, 0.04075728, -0.2170175, 0, 0
Line.MV3PMAI107, 30.43212, 13.72715, 30.43212, 13.72715, 0, 0
Line.MV3PMAI108, 30.72319, 13.86412, 30.72319, 13.86412, 0, 0
Line.MV3PMAI109, 33.17774, 14.97816, 33.17774, 14.97816, 0, 0
Line.MV1PMAI110, 0.01899589, -4.816766, 0.01899589, -4.816766, 0, 0
Line.MV3PMAI111, 24.84948, 10.12485, 24.84948, 10.12485, 0, 0
Line.MV3PMAI112, 0.00260274, -73.91668, 0.00260274, -73.91668, 0, 0
Line.MV1PMAI113, 0.8828406, -4.700713, 0.8828406, -4.700713, 0, 0
Line.MV1PMAI114, 0.3019397, -1.607522, 0.3019397, -1.607522, 0, 0
Line.MV1PMAI115, 0.04144008, -0.2206565, 0.04144008, -0.2206565, 0, 0
Line.MV1PMAI116, 0.8609618, -4.756368, 0.8609618, -4.756368, 0, 0
Line.MV1PMAI117, 0.003149324, -1.988384, 0.003149324, -1.988384, 0, 0
Line.MV1PMAI118, 0.00463946, -3.398449, 0.00463946, -3.398449, 0, 0
Line.MV1PMAI119, 0.02368347, -9.586055, 0.02368347, -9.586055, 0, 0
Line.MV1PMAI120, 1.51463, -7.656438, 1.51463, -7.656438, 0, 0
Line.MV1PMAI121, 0.01212985, -6.695502, 0.01212985, -6.695502, 0, 0
Line.MV1PMAI122, 0.04780663, -4.782701, 0.04780663, -4.782701, 0, 0
Line.MV1PMAI123, 0.01128121, -6.262821, 0.01128121, -6.262821, 0, 0
Line.MV1PMAI124, 3.636746E-005, -2.197884, 3.636746E-005, -2.197884, 0, 0
Line.MV1PMAI125, 0.4556938, -6.634617, 0.4556938, -6.634617, 0, 0
Line.MV1PMAI126, 0.001484297, -51.83545, 0.001484297, -51.83545, 0, 0
Line.MV1PMAI127, 0.001128518, -56.12228, 0.001128518, -56.12228, 0, 0
Line.MV3PMAI128, 22.35491, 5.9713, 22.35491, 5.9713, 0, 0
Line.MV1PMAI129, 0.006256411, -29.92988, 0.006256411, -29.92988, 0, 0
Line.MV1PMAI130, 0.01652366, -25.97804, 0.01652366, -25.97804, 0, 0
Line.MV1PMAI131, 0.0544253, -143.2873, 0.0544253, -143.2873, 0, 0
Line.MV1PMAI132, 0.01145121, -8.380575, 0.01145121, -8.380575, 0, 0
Line.MV1PMAI133, 0.007245072, -5.296741, 0.007245072, -5.296741, 0, 0
Line.MV1PMAI134, 0.05852995, -5.852416, 0.05852995, -5.852416, 0, 0
Line.MV1PMAI135, 0.3962338, -5.768191, 0.3962338, -5.768191, 0, 0
Line.MV1PMAI136, 0.152866, -6.941014, 0.152866, -6.941014, 0, 0
Line.MV1PMAI137, 0.02844853, -4.393952, 0.02844853, -4.393952, 0, 0
Line.MV1PMAI138, 0.007012698, -5.122834, 0.007012698, -5.122834, 0, 0
Line.MV1PMAI139, 0.007918371, -5.779481, 0.007918371, -5.779481, 0, 0
Line.MV1PMAI140, 0.0001711019, -7.572261, 0.0001711019, -7.572261, 0, 0
Line.MV1PMAI141, 0.0001360395, -5.879451, 0.0001360395, -5.879451, 0, 0
Line.MV3PMAI142, 0.001670168, -4.000013, 0.001670168, -4.000013, 0, 0
Line.MV3PMAI143, 0.004503317, -126.3264, 0.004503317, -126.3264, 0, 0
Line.MV3PMAI144, 29.255, 7.820484, 29.255, 7.820484, 0, 0
Line.MV3PMAI145, 26.51811, 7.206422, 26.51811, 7.206422, 0, 0
Line.MV3PMAI146, -1.652844E-007, -21.40251, -1.652844E-007, -21.40251, 0, 0
Line.MV1PMAI147, 0.05591505, -6.042397, 0.05591505, -6.042397, 0, 0
Line.MV1PMAI148, 0.0001361696, -5.767947, 0.0001361696, -5.767947, 0, 0
Line.MV3PMAI149, 13.49544, 3.534974, 13.49544, 3.534974, 0, 0
Line.MV3PMAI150, 0.006200622, -10.75776, 0.006200622, -10.75776, 0, 0
Line.MV1PMAI151, 0.001119286, -0.1393909, 0.001119286, -0.1393909, 0, 0
Line.MV1PMAI152, 0.02493614, -3.335479, 0.02493614, -3.335479, 0, 0
Line.MV1PMAI153, 0.02164365, -3.043352, 0.02164365, -3.043352, 0, 0
Line.MV1PMAI154, 0.03606892, -5.418927, 0.03606892, -5.418927, 0, 0
Line.MV1PMAI155, 0.03626487, -6.202265, 0.03626487, -6.202265, 0, 0
Line.MV1PMAI156, 8.589869E-005, -5.278859, 8.589869E-005, -5.278859, 0, 0
Line.MV1PMAI157, 0.0006978933, -7.362118, 0.0006978933, -7.362118, 0, 0
Line.MV1PMAI158, 5.643465E-007, -0.07761137, 5.643465E-007, -0.07761137, 0, 0
Line.MV3PMAI159, -2.792683E-007, -19.9389, -2.792683E-007, -19.9389, 0, 0
Line.MV3PMAI160, 0.6673231, -15.22269, 0.6673231, -15.22269, 0, 0
Line.MV3PMAI161, 6.132913, -2.985225, 6.132913, -2.985225, 0, 0
Line.MV3PMAI162, 0.05249795, -1.278762, 0.05249795, -1.278762, 0, 0
Line.MV3PMAI163, 0.1348472, -33.52704, 0.1348472, -33.52704, 0, 0
Line.MV3PMAI164, 15.11031, -8.65009, 15.11031, -8.65009, 0, 0
Line.MV3PMAI165, 0.8938492, -33.5917, 0.8938492, -33.5917, 0, 0
Line.MV3PMAI166, 0.90231, -33.90439, 0.90231, -33.90439, 0, 0
Line.MV1PMAI167, 0.3462589, -4.734364, 0.3462589, -4.734364, 0, 0
Line.MV3PMAI168, 0.1175567, -26.9905, 0.1175567, -26.9905, 0, 0
Line.MV1PMAI169, 2.432812E-007, -1.645266, 2.432812E-007, -1.645266, 0, 0
Line.MV3PMAI170, 0.1018679, -25.31892, 0.1018679, -25.31892, 0, 0
Line.MV3PMAI171, 0.02280685, -24.5934, 0.02280685, -24.5934, 0, 0
Line.MV3PMAI172, 0.02566256, -27.66007, 0.02566256, -27.66007, 0, 0
Line.MV3PMAI173, 0.1391541, -30.75593, 0.1391541, -30.75593, 0, 0
Line.MV3PMAI174, 0.08096859, -18.90545, 0.08096859, -18.90545, 0, 0
Line.MV1PMAI175, 0.0001224354, -13.54264, 0.0001224354, -13.54264, 0, 0
Line.MV3PMAI176, 0.1816707, -313.7786, 0.1816707, -313.7786, 0, 0
Line.MV3PMAI177, 0.0227815, -23.00899, 0.0227815, -23.00899, 0, 0
Line.MV3PMAI178, 0.02304055, -23.26459, 0.02304055, -23.26459, 0, 0
Line.MV3PMAI179, 0.01238397, -16.68691, 0.01238397, -16.68691, 0, 0
Line.MV3PMAI180, 0.001818566, -42.19627, 0.001818566, -42.19627, 0, 0
Line.MV1PMAI181, 0.2249843, -5.856419, 0.2249843, -5.856419, 0, 0
Line.MV3PMAI182, 0.03240358, -31.29633, 0.03240358, -31.29633, 0, 0
Line.MV3PMAI183, 0.03808792, -36.76537, 0.03808792, -36.76537, 0, 0
Line.MV3PMAI184, 13.08769, -7.487128, 13.08769, -7.487128, 0, 0
Line.MV3PMAI185, -7.711891E-009, -18.03642, -7.711891E-009, -18.03642, 0, 0
Line.MV3PMAI186, 0.0006397876, -16.33379, 0.0006397876, -16.33379, 0, 0
Line.MV3PMAI187, 16.2175, -10.68863, 16.2175, -10.68863, 0, 0
Line.MV3PMAI188, 0.01489083, -24.12315, 0.01489083, -24.12315, 0, 0
Line.MV3PMAI189, 0.07642171, -19.35426, 0.07642171, -19.35426, 0, 0
Line.MV1PMAI190, 0.001267219, -1.660663, 0.001267219, -1.660663, 0, 0
Line.MV3PMAI191, 0.1279739, -25.51046, 0.1279739, -25.51046, 0, 0
Line.MV3PMAI192, 0.001746463, -8.417544, 0.001746463, -8.417544, 0, 0
Line.MV3PMAI193, 0.006632481, -1.323, 0.006632481, -1.323, 0, 0
Line.MV3PMAI194, 0.1127223, -27.56427, 0.1127223, -27.56427, 0, 0
Line.MV3PMAI195, 0.0002133131, -258.7893, 0.0002133131, -258.7893, 0, 0
Line.MV1PMAI196, 0.0003364984, -1.763621, 0.0003364984, -1.763621, 0, 0
Line.MV3PMAI197, 0.1326606, -33.48626, 0.1326606, -33.48626, 0, 0
Line.MV3PMAI198, 8.678043E-007, -5.730288, 8.678043E-007, -5.730288, 0, 0
Line.MV3PMAI199, -4.062715E-007, -11.96547, -4.062715E-007, -11.96547, 0, 0
...
Transformer.HVMV, 1.408625E-008, 4577.126, 1.408625E-008, 4577.126, 0, 0
Transformer.MAI1P_1, 290.1388, 1068.487, 0.2408404, 0.4416413, 289.8979, 1068.045
Transformer.MAI1P_2, 276.0261, 633.8155, 86.79265, 122.3738, 189.2334, 511.4417
Transformer.MAI1P_3, 366.2779, 1322.367, 0.249789, 0.5993883, 366.0281, 1321.768
Transformer.MAI1P_4, 237.752, 582.1919, 45.67787, 63.07278, 192.0741, 519.1192
Transformer.MAI1P_5, 179.2461, 436.7734, 9.323723, 11.96736, 169.9224, 424.806
Transformer.MAI1P_6, 289.1249, 1064.753, 0.2399987, 0.440098, 288.8849, 1064.313
Transformer.MAI1P_7, 167.9376, 419.791, 0.08835899, 0.1678904, 167.8492, 419.6231
Transformer.MAI1P_8, 153.1879, 360.7762, 34.74582, 33.17035, 118.4421, 327.6058
Transformer.MAI1P_9, 214.0552, 542.517, 27.89464, 39.38028, 186.1606, 503.1368
Transformer.MAI1P_10, 211.7369, 539.3082, 25.53159, 36.05053, 186.2053, 503.2577
Transformer.MAI1P_11, 191.968, 518.5595, 0.2699468, 0.4566447, 191.6981, 518.1028
Transformer.MAI1P_12, 299.0183, 1092.818, 4.079335, 6.200839, 294.939, 1086.617
Transformer.MAI1P_13, 297.8482, 1096.247, 0.5359125, 0.8863185, 297.3123, 1095.361
Transformer.MAI1P_14, 299.4366, 1100.545, 1.247811, 1.954423, 298.1888, 1098.59
Transformer.MAI1P_15, 194.3322, 523.9368, 1.053101, 1.560782, 193.2791, 522.3761
Transformer.MAI1P_16, 85.49046, 213.6029, 0.07803226, 0.07178525, 85.41243, 213.5311
Transformer.MAI1P_17, 255.07, 454.7573, 138.3805, 131.999, 116.6895, 322.7583
Transformer.MAI1P_18, 289.5027, 1066.144, 0.2403123, 0.4406731, 289.2624, 1065.704
Transformer.MAI1P_19, 206.3534, 534.9888, 17.62364, 24.90829, 188.7298, 510.0805
Transformer.MAI1P_20, 150.6425, 256.9271, 65.03996, 42.92077, 85.60252, 214.0063
Transformer.MAI1P_21, 290.1418, 1068.498, 0.2408428, 0.4416458, 289.9009, 1068.056
Transformer.MAI1P_22, 177.906, 437.0271, 5.921688, 7.066422, 171.9843, 429.9607
Transformer.MAI1P_23, 290.8537, 1069.103, 1.164404, 1.826955, 289.6893, 1067.276
Transformer.MAI1P_24, 290.4352, 1068.63, 0.6752581, 1.093246, 289.76, 1067.537
Transformer.MAI1P_25, 291.6897, 1070.154, 2.093782, 3.221009, 289.596, 1066.933
Transformer.MAI1P_26, 300.4316, 1094.758, 5.574958, 8.444263, 294.8567, 1086.314
Transformer.MAI1P_27, 121.8857, 336.9892, 0.09656783, 0.1256301, 121.7891, 336.8635
Transformer.MAI1P_28, 289.5032, 1066.146, 0.2403127, 0.4406738, 289.2629, 1065.705
Transformer.MAI1P_29, 342.0252, 1138.475, 55.71701, 83.65513, 286.3082, 1054.82
Transformer.MAI1P_30, 170.8499, 427.0708, 0.08989126, 0.1708018, 170.76, 426.9
Transformer.MAI1P_31, 290.0236, 1068.063, 0.2407447, 0.441466, 289.7829, 1067.621
Transformer.MAI1P_32, 206.862, 540.1505, 14.69732, 20.78644, 192.1647, 519.3641
Transformer.MAI1P_33, 187.7294, 507.3283, 0.09514375, 0.2087061, 187.6343, 507.1196
Transformer.MAI1P_34, 484.8301, 670.9488, 369.5127, 351.9858, 115.3174, 318.963
Transformer.MAI1P_35, 167.6933, 419.1803, 0.08823046, 0.1676461, 167.6051, 419.0127
Transformer.MAI1P_36, 167.689, 419.1696, 0.08822819, 0.1676418, 167.6008, 419.0019
Transformer.MAI1P_37, 290.3212, 1067.815, 0.8560048, 1.364289, 289.4652, 1066.451
Transformer.MAI1P_38, 529.7596, 502.9049, 446.4751, 294.6937, 83.2845, 208.2112
Transformer.MAI1P_39, 192.8545, 520.1288, 0.9089622, 1.35716, 191.9455, 518.7716
Transformer.MAI1P_40, 216.3978, 546.5513, 29.50374, 41.43232, 186.894, 505.119
Transformer.MAI1P_41, 296.4956, 1091.897, 0.2461171, 0.4513175, 296.2495, 1091.446
Transformer.MAI1P_42, 297.4053, 1093.741, 0.9363841, 1.486801, 296.469, 1092.254
Transformer.MAI1P_43, 298.2567, 1094.774, 1.89943, 2.931353, 296.3573, 1091.843
Transformer.MAI1P_44, 292.8001, 1069.871, 4.044712, 6.034808, 288.7554, 1063.836
Transformer.MAI1P_45, 173.8901, 426.4994, 6.873221, 8.957167, 167.0169, 417.5423
Transformer.MAI1P_46, 289.5337, 1066.259, 0.2403381, 0.4407203, 289.2934, 1065.818
Transformer.MAI1P_47, 167.7013, 419.2003, 0.08823466, 0.1676541, 167.6131, 419.0326
Transformer.MAI1P_48, 227.3488, 494.5256, 61.34571, 79.51802, 166.003, 415.0076
Transformer.MAI1P_49, 296.5584, 1092.128, 0.2461692, 0.451413, 296.3122, 1091.677
Transformer.MAI1P_50, 415.7784, 610.7394, 297.3865, 283.2726, 118.3918, 327.4668
Transformer.MAI1P_51, 175.0965, 385.8823, 54.33466, 51.86029, 120.7618, 334.022
Transformer.MAI1P_52, 188.0482, 508.1897, 0.0953053, 0.2090605, 187.9529, 507.9807
Transformer.MAI1P_53, 289.7123, 1066.916, 0.2404863, 0.4409921, 289.4718, 1066.475
Transformer.MAI1P_54, 150.1395, 357.647, 31.82206, 30.38602, 118.3174, 327.261
Transformer.MAI1P_55, 297.5456, 1093.896, 1.102065, 1.735319, 296.4436, 1092.161
Transformer.MAI1P_56, 196.3206, 520.2056, 8.090036, 11.47442, 188.2305, 508.7312
Transformer.MAI1P_57, 289.4536, 1065.964, 0.2402716, 0.4405984, 289.2134, 1065.523
Transformer.MAI1P_58, 167.7171, 419.2397, 0.08824296, 0.1676699, 167.6288, 419.0721
Transformer.MAI1P_59, 296.5584, 1092.128, 0.2461692, 0.4514131, 296.3122, 1091.677
Transformer.MAI1P_60, 201.5075, 532.3711, 9.523841, 13.49641, 191.9836, 518.8747
Transformer.MAI1P_61, 537.3587, 898.4407, 369.4333, 478.6271, 167.9254, 419.8135
Transformer.MAI1P_62, 175.3889, 432.9249, 4.650447, 6.078835, 170.7384, 426.846
Transformer.MAI1P_63, 337.0208, 1149.335, 42.29213, 63.49196, 294.7287, 1085.843
Transformer.MAI1P_64, 195.3477, 523.1109, 3.812689, 5.448666, 191.535, 517.6622
Transformer.MAI1P_65, 171.599, 428.9433, 0.09028539, 0.1715507, 171.5087, 428.7717
Transformer.MAI1P_66, 167.691, 419.1745, 0.08822922, 0.1676438, 167.6027, 419.0068
Transformer.MAI1P_67, 150.3681, 362.9802, 29.2283, 27.91275, 121.1398, 335.0674
Transformer.MAI1P_68, 254.3214, 605.1096, 63.63701, 89.7464, 190.6844, 515.3632
Transformer.MAI1P_69, 188.0243, 508.1254, 0.09529323, 0.209034, 187.929, 507.9163
Transformer.MAI1P_70, 189.5879, 446.4329, 22.88165, 29.6672, 166.7063, 416.7657
Transformer.MAI1P_71, 173.0616, 430.5185, 1.818072, 2.409767, 171.2435, 428.1087
Transformer.MAI1P_72, 194.1168, 522.026, 2.079673, 3.006874, 192.0371, 519.0192
Transformer.MAI1P_73, 193.4111, 521.5594, 0.966163, 1.437954, 192.4449, 520.1214
Transformer.MAI1P_74, 296.5541, 1092.112, 0.2461656, 0.4514064, 296.3079, 1091.661
Transformer.MAI1P_75, 172.1177, 428.9962, 1.122779, 1.508954, 170.9949, 427.4872
Transformer.MAI1P_76, 188.0141, 508.0976, 0.09528803, 0.2090226, 187.9188, 507.8886
Transformer.MAI1P_77, 251.6046, 530.306, 81.98926, 106.2676, 169.6154, 424.0384
Transformer.MAI1P_78, 194.4295, 523.1716, 1.847663, 2.680104, 192.5818, 520.4915
Transformer.MAI1P_79, 167.5448, 418.8092, 0.08815234, 0.1674977, 167.4567, 418.6417
Transformer.MAI1P_80, 477.7756, 911.6529, 293.4971, 413.6029, 184.2785, 498.05
Transformer.MAI1P_81, 167.6891, 419.1698, 0.08822824, 0.1676419, 167.6009, 419.0022
Transformer.MAI1P_82, 128.757, 340.065, 8.886998, 8.509771, 119.87, 331.5552
Transformer.MAI1P_83, 176.5913, 434.7984, 5.584678, 7.281953, 171.0066, 427.5164
Transformer.MAI1P_84, 197.3266, 458.5691, 28.89126, 37.48082, 168.4353, 421.0882
Transformer.MAI1P_85, 301.6809, 1099.15, 5.656953, 8.53561, 296.0239, 1090.615
Transformer.MAI1P_86, 174.8152, 432.5448, 3.758185, 4.902335, 171.057, 427.6425
Transformer.MAI1P_87, 315.0984, 1122.331, 17.64689, 26.4572, 297.4515, 1095.874
Transformer.MAI1P_88, 188.1212, 508.3871, 0.09534232, 0.2091417, 188.0259, 508.178
Transformer.MAI1P_89, 188.0141, 508.0976, 0.09528803, 0.2090226, 187.9188, 507.8886
Transformer.MAI1P_90, 146.0719, 353.9069, 27.67735, 26.43263, 118.3945, 327.4743
Transformer.MAI1P_91, 290.1313, 1067.614, 0.6278794, 1.022106, 289.5034, 1066.591
Transformer.MAI1P_92, 225.5064, 564.8483, 34.50616, 48.63132, 191.0003, 516.217
Transformer.MAI1P_93, 367.6174, 1323.439, 2.558694, 5.172056, 365.0587, 1318.267
Transformer.MAI1P_94, 174.454, 428.3699, 6.490907, 8.462097, 167.9631, 419.9078
Transformer.MAI1P_95, 289.4532, 1065.962, 0.2402713, 0.4405978, 289.213, 1065.521
Transformer.MAI1P_96, 168.4599, 420.1216, 0.8978126, 1.216428, 167.562, 418.9051
Transformer.MAI1P_97, 295.8496, 1089.518, 0.2455808, 0.4503342, 295.604, 1089.068
Transformer.MAI1P_98, 295.8496, 1089.518, 0.2455808, 0.4503341, 295.604, 1089.067
Transformer.MAI1P_99, 168.0753, 419.6941, 0.4544663, 0.6421046, 167.6208, 419.052
Transformer.MAI1P_100, 168.505, 420.5245, 0.6570493, 0.9045881, 167.848, 419.62
Transformer.MAI1P_101, 365.5582, 1319.769, 0.2492982, 0.5982106, 365.3089, 1319.171
Transformer.MAI1P_102, 119.443, 330.2356, 0.09463252, 0.1231124, 119.3484, 330.1125
Transformer.MAI1P_103, 289.6096, 1066.001, 0.4859761, 0.8091419, 289.1236, 1065.192
Transformer.MAI1P_104, 172.9662, 425.2734, 5.973382, 7.791451, 166.9928, 417.482
Transformer.MAI1P_105, 174.1184, 426.7104, 7.171798, 9.343935, 166.9466, 417.3665
Transformer.MAI1P_106, 192.3429, 519.7961, 0.09748195, 0.2138352, 192.2454, 519.5823
Transformer.MAI1P_107, 167.7016, 419.2011, 0.08823483, 0.1676544, 167.6134, 419.0334
Transformer.MAI1P_108, 167.5519, 418.827, 0.08815608, 0.1675048, 167.4638, 418.6595
Transformer.MAI1P_109, 122.239, 337.213, 0.4811715, 0.4360593, 121.7578, 336.7769
Transformer.MAI1P_110, 192.0323, 518.4342, 0.4493118, 0.6424056, 191.5829, 517.7917
Transformer.MAI1P_111, 121.8516, 336.895, 0.09654085, 0.125595, 121.7551, 336.7694
Transformer.MAI1P_112, 122.0535, 337.4532, 0.09670081, 0.1258031, 121.9568, 337.3274
Transformer.MAI1P_113, 295.9041, 1089.718, 0.245626, 0.4504171, 295.6585, 1089.268
Transformer.MAI1P_114, 750.5891, 1756.396, 461.9577, 693.0175, 288.6314, 1063.379
Transformer.MAI1P_115, 191.7987, 518.3254, 0.09720614, 0.2132301, 191.7015, 518.1122
Transformer.MAI1P_116, 187.7629, 507.4189, 0.09516074, 0.2087434, 187.6678, 507.2101
Transformer.MAI1P_117, 297.3284, 1090.572, 2.243223, 3.41658, 295.0851, 1087.156
Transformer.MAI1P_118, 178.736, 393.442, 55.71838, 53.18049, 123.0176, 340.2615
Transformer.MAI1P_119, 196.8119, 519.4306, 9.715274, 13.76421, 187.0966, 505.6664
Transformer.MAI1P_120, 171.0635, 427.6049, 0.09000368, 0.1710154, 170.9735, 427.4338
Transformer.MAI1P_121, 373.7638, 1349.394, 0.2548942, 0.6116385, 373.5089, 1348.782
Transformer.MAI1P_122, 365.3768, 1319.114, 0.2491745, 0.5979137, 365.1276, 1318.516
Transformer.MAI1P_123, 171.2481, 428.0661, 0.09010077, 0.1711999, 171.158, 427.8949
Transformer.MAI1P_124, 189.0007, 445.0453, 22.71832, 29.33938, 166.2824, 415.7059
Transformer.MAI1P_125, 258.3934, 533.6296, 93.31604, 120.9362, 165.0774, 412.6934
Transformer.MAI1P_126, 171.2741, 428.1311, 0.09011444, 0.1712259, 171.1839, 427.9598
Transformer.MAI1P_127, 167.4494, 418.5707, 0.08810214, 0.1674023, 167.3613, 418.4033
Transformer.MAI1P_128, 247.9864, 529.0966, 75.47703, 97.82323, 172.5093, 431.2734
Transformer.MAI1P_129, 191.7952, 518.316, 0.09720438, 0.2132263, 191.698, 518.1028
Transformer.MAI1P_130, 296.4103, 1091.1, 0.467216, 0.7828919, 295.9431, 1090.317
Transformer.MAI1P_131, 202.6099, 409.629, 82.74115, 78.07719, 119.8687, 331.5518
Transformer.MAI1P_132, 191.7852, 518.289, 0.09719931, 0.2132152, 191.688, 518.0758
Transformer.MAI1P_133, 85.2931, 213.1097, 0.07785212, 0.07161953, 85.21525, 213.0381
Transformer.MAI1P_134, 196.951, 519.5311, 9.925677, 14.05714, 187.0254, 505.474
Transformer.MAI1P_135, 369.807, 1327.219, 5.09015, 10.18569, 364.7169, 1317.033
Transformer.MAI1P_136, 196.2703, 523.9221, 5.067946, 7.158947, 191.2024, 516.7632
Transformer.MAI1P_137, 199.5386, 530.0414, 7.21135, 10.2379, 192.3273, 519.8035
Transformer.MAI1P_138, 311.7271, 1110.764, 17.28258, 25.96859, 294.4445, 1084.796
Transformer.MAI1P_139, 268.5201, 551.3606, 99.60833, 129.0813, 168.9117, 422.2793
Transformer.MAI1P_140, 123.3919, 338.434, 1.598331, 1.558107, 121.7936, 336.8759
Transformer.MAI1P_141, 171.2754, 428.1344, 0.09011514, 0.1712272, 171.1853, 427.9632
Transformer.MAI1P_142, 184.4486, 444.2832, 14.02402, 18.22181, 170.4246, 426.0614
Transformer.MAI1P_143, 297.1852, 1090.952, 1.841603, 2.844331, 295.3436, 1088.108
Transformer.MAI1P_144, 289.3107, 1065.437, 0.2401507, 0.4403773, 289.0705, 1064.997
Transformer.MAI1P_145, 299.6611, 1095.051, 4.141183, 6.29378, 295.52, 1088.758
Transformer.MAI1P_146, 171.2838, 428.0658, 0.1644512, 0.2675095, 171.1193, 427.7983
Transformer.MAI1P_147, 211.2697, 545.7687, 19.56028, 27.63504, 191.7094, 518.1336
Transformer.MAI1P_148, 292.0417, 1068.497, 3.445787, 5.248761, 288.596, 1063.248
Transformer.MAI1P_149, 193.2863, 520.822, 1.275224, 1.873277, 192.011, 518.9487
Transformer.MAI1P_150, 458.3252, 1324.731, 166.596, 249.9391, 291.7291, 1074.791
Transformer.MAI1P_151, 212.528, 546.2587, 21.81285, 30.81232, 190.7152, 515.4464
Transformer.MAI1P_152, 295.5123, 1088.276, 0.2453008, 0.4498207, 295.267, 1087.826
Transformer.MAI1P_153, 170.4876, 376.201, 52.64199, 50.24493, 117.8456, 325.956
Transformer.MAI1P_154, 365.4251, 1319.289, 0.2492075, 0.5979928, 365.1759, 1318.691
Transformer.MAI1P_155, 171.4063, 427.8969, 0.5589959, 0.7785487, 170.8473, 427.1184
Transformer.MAI1P_156, 191.8102, 518.3566, 0.09721198, 0.213243, 191.713, 518.1433
Transformer.MAI1P_157, 165.1338, 375.9908, 44.58637, 42.56185, 120.5474, 333.429
Transformer.MAI1P_158, 193.1691, 520.2859, 1.444903, 2.112295, 191.7242, 518.1736
Transformer.MAI1P_159, 192.0274, 518.9435, 0.09732205, 0.2134844, 191.9301, 518.73
Transformer.MAI1P_160, 305.9001, 1103.163, 10.94096, 16.4715, 294.9591, 1086.692
Transformer.MAI1P_161, 172.1436, 428.6, 1.478232, 1.936589, 170.6654, 426.6634
Transformer.MAI1P_162, 126.4286, 340.4338, 5.129767, 4.926439, 121.2988, 335.5073
Transformer.MAI1P_163, 295.5119, 1088.274, 0.2453005, 0.4498201, 295.2666, 1087.824
Transformer.MAI1P_164, 192.2799, 519.6259, 0.09745003, 0.2137651, 192.1825, 519.4121
Transformer.MAI1P_165, 190.0036, 398.9639, 69.82883, 66.56572, 120.1747, 332.3982
Transformer.MAI1P_166, 219.4619, 555.7556, 28.87203, 40.6477, 190.5899, 515.1079
Transformer.MAI1P_167, 188.3262, 507.9139, 0.8623617, 1.255026, 187.4638, 506.6589
Transformer.MAI1P_168, 167.5278, 418.6305, 0.2012518, 0.3139756, 167.3266, 418.3165
Transformer.MAI1P_169, 320.5084, 366.3685, 236.3711, 156.0252, 84.13732, 210.3433
Transformer.MAI1P_170, 171.0441, 427.5563, 0.08999346, 0.170996, 170.9541, 427.3853
Transformer.MAI1P_171, 151.9728, 363.3517, 31.37503, 29.78333, 120.5978, 333.5684
Transformer.MAI1P_172, 184.1866, 441.0122, 16.19507, 21.03337, 167.9915, 419.9788
Transformer.MAI1P_173, 365.3682, 1319.083, 0.2491687, 0.5978997, 365.1191, 1318.485
Transformer.MAI1P_174, 121.9654, 336.9202, 0.2508727, 0.2628926, 121.7145, 336.6573
Transformer.MAI1P_175, 217.0862, 485.4075, 47.62134, 61.74539, 169.4649, 423.6621
Transformer.MAI1P_176, 189.3065, 509.2593, 1.897243, 2.747972, 187.4092, 506.5114
Transformer.MAI1P_177, 188.397, 508.474, 0.6042753, 0.9261719, 187.7927, 507.5478
Transformer.MAI1P_178, 193.5985, 520.8429, 1.911453, 2.769697, 191.6871, 518.0732
Transformer.MAI1P_179, 200.5288, 530.1425, 9.201732, 13.04226, 191.3271, 517.1003
Transformer.MAI1P_180, 191.81, 518.3558, 0.09721183, 0.2132426, 191.7127, 518.1425
Transformer.MAI1P_181, 171.0399, 427.5457, 0.08999123, 0.1709918, 170.9499, 427.3747
Transformer.MAI1P_182, 174.6859, 431.0393, 4.312929, 5.106996, 170.3729, 425.9323
Transformer.MAI1P_183, 168.9508, 420.2218, 1.833476, 2.428405, 167.1174, 417.7934
Transformer.MAI1P_184, 192.2152, 519.4509, 0.0974172, 0.2136931, 192.1178, 519.2372
Transformer.MAI1P_185, 205.721, 536.8976, 14.82755, 20.96945, 190.8934, 515.9282
Transformer.MAI1P_186, 289.348, 1065.574, 0.2401839, 0.4404375, 289.1078, 1065.134
Transformer.MAI1P_187, 190.4625, 511.5244, 2.561727, 3.684419, 187.9008, 507.8399
Transformer.MAI1P_188, 295.8753, 1089.612, 0.2456021, 0.4503733, 295.6297, 1089.162
Transformer.MAI1P_189, 121.8507, 336.8925, 0.09654012, 0.1255941, 121.7542, 336.7669
Transformer.MAI1P_190, 121.9852, 337.2642, 0.09664663, 0.1257327, 121.8885, 337.1384
Transformer.MAI1P_191, 365.4254, 1319.29, 0.2492076, 0.5979933, 365.1762, 1318.692
Transformer.MAI1P_192, 121.8184, 336.8032, 0.09651454, 0.1255608, 121.7219, 336.6776
Transformer.MAI1P_193, 121.8396, 336.8617, 0.09653131, 0.1255826, 121.7431, 336.7361
Transformer.MAI1P_194, 293.0194, 1069.963, 4.423604, 6.715486, 288.5958, 1063.248
Transformer.MAI1P_195, 289.3483, 1065.575, 0.2401841, 0.440438, 289.1081, 1065.135
Transformer.MAI1P_196, 373.7044, 1349.18, 0.2548537, 0.6115414, 373.4496, 1348.568
Transformer.MAI1P_197, 175.5149, 433.096, 4.770033, 6.233755, 170.7449, 426.8623
Transformer.MAI1P_198, 295.9081, 1089.733, 0.2456294, 0.4504232, 295.6625, 1089.283
Transformer.MAI1P_199, 295.9061, 1089.726, 0.2456277, 0.4504201, 295.6605, 1089.275
...
Capacitor.CAP0, 0, -307751.2, 0, -307751.2, 0, 0
Capacitor.CAP1, 7.275958E-012, -310043.1, 7.275958E-012, -310043.1, 0, 0
Line.LV1FMAI1, 3.161348, 0.590725, 3.161348, 0.590725, 0, 0
Line.LV1FMAI2, 66.87298, 12.32721, 66.87298, 12.32721, 0, 0
Line.LV1FMAI3, 1.054612, 0.2447941, 1.054612, 0.2447941, 0, 0
Line.LV1FMAI4, 0.0233198, 0.004055035, 0.0233198, 0.004055035, 0, 0
Line.LV1FMAI5, 0.0358012, 0.006112035, 0.0358012, 0.006112035, 0, 0
Line.LV1FMAI6, 31.98105, 5.878282, 31.98105, 5.878282, 0, 0
Line.LV1FMAI7, 0.03516726, 0.006003808, 0.03516726, 0.006003808, 0, 0
Line.LV1FMAI8, 0.01285137, 0.01060531, 0.01285137, 0.01060531, 0, 0
Line.LV1FMAI9, 0.05080956, 0.009284526, 0.05080956, 0.009284526, 0, 0
Line.LV1FMAI10, 0.1810391, 0.03276297, 0.1810391, 0.03276297, 0, 0
Line.LV1FMAI11, 18.51098, 3.405747, 18.51098, 3.405747, 0, 0
Line.LV1FMAI12, 0.01424239, 0.002431493, 0.01424239, 0.002431493, 0, 0
Line.LV1FMAI13, 0.001754315, 0.0002696194, 0.001754315, 0.0002696194, 0, 0
Line.LV1FMAI14, 0.03811681, 0.006628044, 0.03811681, 0.006628044, 0, 0
Line.LV1FMAI15, 0.01618998, 0.002458562, 0.01618998, 0.002458562, 0, 0
Line.LV1FMAI16, 0.001706662, 0.0001319032, 0.001706662, 0.0001319032, 0, 0
Line.LV1FMAI17, 11.46831, 2.103012, 11.46831, 2.103012, 0, 0
Line.LV1FMAI18, 0.01505316, 0.01197114, 0.01505316, 0.01197114, 0, 0
Line.LV1FMAI19, 0.03405137, 0.006059748, 0.03405137, 0.006059748, 0, 0
Line.LV1FMAI20, 0.008176461, 0.001187431, 0.008176461, 0.001187431, 0, 0
Line.LV1FMAI21, 0.001571297, 1.250895E-005, 0.001571297, 1.250895E-005, 0, 0
Line.LV1FMAI22, 0.2868041, 0.0522091, 0.2868041, 0.0522091, 0, 0
Line.LV1FMAI23, 0.003298705, 0.0004081479, 0.003298705, 0.0004081479, 0, 0
Line.LV1FMAI24, 2.139573, 0.3921184, 2.139573, 0.3921184, 0, 0
Line.LV1FMAI25, 0.006309086, 0.000880567, 0.006309086, 0.000880567, 0, 0
Line.LV1FMAI26, 0.793495, 0.1452464, 0.793495, 0.1452464, 0, 0
Line.LV1FMAI27, 0.04755145, 0.008446187, 0.04755145, 0.008446187, 0, 0
Line.LV1FMAI28, 0.2875443, 0.05247113, 0.2875443, 0.05247113, 0, 0
Line.LV1FMAI29, 8.342076, 1.603243, 8.342076, 1.603243, 0, 0
Line.LV1FMAI30, 0.05212267, 0.008783296, 0.05212267, 0.008783296, 0, 0
Line.LV1FMAI31, 0.07609701, 0.01318124, 0.07609701, 0.01318124, 0, 0
Line.LV1FMAI32, 2.468961, 0.4527266, 2.468961, 0.4527266, 0, 0
Line.LV1FMAI33, 0.7147925, 0.130272, 0.7147925, 0.130272, 0, 0
Line.LV1FMAI34, 0.01271569, 0.00190548, 0.01271569, 0.00190548, 0, 0
Line.LV1FMAI35, 0.3603908, 0.06569188, 0.3603908, 0.06569188, 0, 0
Line.LV1FMAI36, 0.07644734, 0.06954207, 0.07644734, 0.06954207, 0, 0
Line.LV1FMAI37, 0.0189119, 0.003446741, 0.0189119, 0.003446741, 0, 0
Line.LV1FMAI38, 2.383133, 0.5279989, 2.383133, 0.5279989, 0, 0
Line.LV1FMAI39, -1.160124E-012, -0.0009960874, -1.160124E-012, -0.0009960874, 0, 0
Line.LV1FMAI40, 40.42143, 9.186959, 40.42143, 9.186959, 0, 0
Line.LV1FMAI41, 0.004456878, 0.0005008586, 0.004456878, 0.0005008586, 0, 0
Line.LV1FMAI42, 0.04704156, 0.008257953, 0.04704156, 0.008257953, 0, 0
Line.LV1FMAI43, 19.79652, 4.398481, 19.79652, 4.398481, 0, 0
Line.LV1FMAI44, 0.01433931, 0.01164551, 0.01433931, 0.01164551, 0, 0
Line.LV1FMAI45, 3.907024, 0.8196189, 3.907024, 0.8196189, 0, 0
Line.LV1FMAI46, 1.482948, 0.2801167, 1.482948, 0.2801167, 0, 0
Line.LV1FMAI47, 0.001411526, -7.821667E-005, 0.001411526, -7.821667E-005, 0, 0
Line.LV1FMAI48, 0.01368597, 0.01083131, 0.01368597, 0.01083131, 0, 0
Line.LV1FMAI49, 0.003112944, 0.0002805975, 0.003112944, 0.0002805975, 0, 0
Line.LV1FMAI50, 0.09577115, 0.08879812, 0.09577115, 0.08879812, 0, 0
Line.LV1FMAI51, 0.03494817, 0.006077052, 0.03494817, 0.006077052, 0, 0
Line.LV1FMAI52, 0.002165578, 0.0001952046, 0.002165578, 0.0001952046, 0, 0
Line.LV1FMAI53, 0.05342973, 0.04835581, 0.05342973, 0.04835581, 0, 0
Line.LV1FMAI54, 0.001151415, 9.163233E-006, 0.001151415, 9.163233E-006, 0, 0
Line.LV1FMAI55, 0.3447606, 0.06271649, 0.3447606, 0.06271649, 0, 0
Line.LV1FMAI56, 0.1767087, 0.1661984, 0.1767087, 0.1661984, 0, 0
Line.LV1FMAI57, 0.002487469, 0.0003077711, 0.002487469, 0.0003077711, 0, 0
Line.LV1FMAI58, 0.005330347, 0.0009193503, 0.005330347, 0.0009193503, 0, 0
Line.LV1FMAI59, 0.002181401, 0.0003352581, 0.002181401, 0.0003352581, 0, 0
Line.LV1FMAI60, 0.02737051, 0.004759396, 0.02737051, 0.004759396, 0, 0
Line.LV1FMAI61, 0.003820697, 0.0004293587, 0.003820697, 0.0004293587, 0, 0
Line.LV1FMAI62, 0.00463597, 0.0006985361, 0.00463597, 0.0006985361, 0, 0
Line.LV1FMAI63, -1.339351E-009, -0.0001208674, -1.339351E-009, -0.0001208674, 0, 0
Line.LV1FMAI64, 0.02466823, 0.004289503, 0.02466823, 0.004289503, 0, 0
Line.LV1FMAI65, 0.000877222, 0.000127396, 0.000877222, 0.000127396, 0, 0
Line.LV1FMAI66, 0.0004386127, 6.369688E-005, 0.0004386127, 6.369688E-005, 0, 0
Line.LV1FMAI67, 0.0008771646, 0.0001273874, 0.0008771646, 0.0001273874, 0, 0
Line.LV1FMAI68, 0.03553759, 0.005894512, 0.03553759, 0.005894512, 0, 0
Line.LV1FMAI69, 0.006092723, 0.0008848161, 0.006092723, 0.0008848161, 0, 0
Line.LV1FMAI70, 0.06162227, 0.0111861, 0.06162227, 0.0111861, 0, 0
Line.LV1FMAI71, 0.00634025, 0.005143377, 0.00634025, 0.005143377, 0, 0
Line.LV1FMAI72, 0.01692346, 0.002871639, 0.01692346, 0.002871639, 0, 0
Line.LV1FMAI73, 5.315395E-011, -0.0006523604, 5.315395E-011, -0.0006523604, 0, 0
Line.LV1FMAI74, 0.00084252, -0.0001139622, 0.00084252, -0.0001139622, 0, 0
Line.LV1FMAI75, 0.01017537, 0.001563832, 0.01017537, 0.001563832, 0, 0
Line.LV1FMAI76, 0.0004386092, 6.369614E-005, 0.0004386092, 6.369614E-005, 0, 0
Line.LV1FMAI77, 3.618437, 0.6637185, 3.618437, 0.6637185, 0, 0
Line.LV1FMAI78, 26.36549, 4.835984, 26.36549, 4.835984, 0, 0
Line.LV1FMAI79, 0.02250488, 0.003862894, 0.02250488, 0.003862894, 0, 0
Line.LV1FMAI80, 0.1093678, 0.01992618, 0.1093678, 0.01992618, 0, 0
Line.LV1FMAI81, 3.134187, 0.57481, 3.134187, 0.57481, 0, 0
Line.LV1FMAI82, 10.19318, 1.868936, 10.19318, 1.868936, 0, 0
Line.LV1FMAI83, 0.1049031, 0.01916914, 0.1049031, 0.01916914, 0, 0
Line.LV1FMAI84, 0.009442314, 0.001657566, 0.009442314, 0.001657566, 0, 0
Line.LV1FMAI85, 0.5185062, 0.09489485, 0.5185062, 0.09489485, 0, 0
Line.LV1FMAI86, 0.1414694, 0.02522767, 0.1414694, 0.02522767, 0, 0
Line.LV1FMAI87, 0.2576469, 0.04715352, 0.2576469, 0.04715352, 0, 0
Line.LV1FMAI88, -3.522019E-011, -0.001059225, -3.522019E-011, -0.001059225, 0, 0
Line.LV1FMAI89, -1.100326E-010, -0.0001344326, -1.100326E-010, -0.0001344326, 0, 0
Line.LV1FMAI90, 0.01912132, 0.003426064, 0.01912132, 0.003426064, 0, 0
Line.LV1FMAI91, 1.26495E-010, -0.0003452573, 1.26495E-010, -0.0003452573, 0, 0
Line.LV1FMAI92, 0.2812952, 0.05132106, 0.2812952, 0.05132106, 0, 0
Line.LV1FMAI93, 0.06388237, 0.01151558, 0.06388237, 0.01151558, 0, 0
Line.LV1FMAI94, 0.006416702, 0.001123336, 0.006416702, 0.001123336, 0, 0
Line.LV1FMAI95, 0.01627243, 0.002500852, 0.01627243, 0.002500852, 0, 0
Line.LV1FMAI96, 0.4307379, 0.07858596, 0.4307379, 0.07858596, 0, 0
Line.LV1FMAI97, 0.1051645, 0.01916647, 0.1051645, 0.01916647, 0, 0
Line.LV1FMAI98, 0.003726846, 0.000558485, 0.003726846, 0.000558485, 0, 0
Line.LV1FMAI99, 1.102594, 0.2020193, 1.102594, 0.2020193, 0, 0
Line.LV1FMAI100, 0.00195952, -0.0002183621, 0.00195952, -0.0002183621, 0, 0
Line.LV1FMAI101, 0.09646964, 0.01763912, 0.09646964, 0.01763912, 0, 0
Line.LV1FMAI102, 0.7474766, 0.1364485, 0.7474766, 0.1364485, 0, 0
Line.LV1FMAI103, 8.295032, 1.520688, 8.295032, 1.520688, 0, 0
Line.LV1FMAI104, 3.15541, 0.5785183, 3.15541, 0.5785183, 0, 0
Line.LV1FMAI105, 0.00195101, 0.0002192549, 0.00195101, 0.0002192549, 0, 0
Line.LV1FMAI106, 0.003627871, 0.0005268642, 0.003627871, 0.0005268642, 0, 0
Line.LV1FMAI107, 0.007504369, 0.0009285026, 0.007504369, 0.0009285026, 0, 0
Line.LV1FMAI108, 0.7713312, 0.1408039, 0.7713312, 0.1408039, 0, 0
Line.LV1FMAI109, 0.03695796, 0.006615509, 0.03695796, 0.006615509, 0, 0
Line.LV1FMAI110, 0.378591, 0.0690094, 0.378591, 0.0690094, 0, 0
Line.LV1FMAI111, 0.004999815, 0.0007684187, 0.004999815, 0.0007684187, 0, 0
Line.LV1FMAI112, 0.1548845, 0.02797206, 0.1548845, 0.02797206, 0, 0
Line.LV1FMAI113, 0.001107271, 5.435819E-005, 0.001107271, 5.435819E-005, 0, 0
Line.LV1FMAI114, 0.0005233626, -5.275788E-005, 0.0005233626, -5.275788E-005, 0, 0
Line.LV1FMAI115, 0.0002616824, -2.637986E-005, 0.0002616824, -2.637986E-005, 0, 0
Line.LV1FMAI116, 0.0005536271, 2.717588E-005, 0.0005536271, 2.717588E-005, 0, 0
Line.LV1FMAI117, 0.03051576, 0.005449134, 0.03051576, 0.005449134, 0, 0
Line.LV1FMAI118, 5.002232, 0.9180889, 5.002232, 0.9180889, 0, 0
Line.LV1FMAI119, 92.37749, 16.95459, 92.37749, 16.95459, 0, 0
Line.LV1FMAI120, 2.802185, 0.5139725, 2.802185, 0.5139725, 0, 0
Line.LV1FMAI121, 49.02501, 9.001064, 49.02501, 9.001064, 0, 0
Line.LV1FMAI122, 0.1736196, 0.03168214, 0.1736196, 0.03168214, 0, 0
Line.LV1FMAI123, 0.4552267, 0.0832081, 0.4552267, 0.0832081, 0, 0
Line.LV1FMAI124, 0.01028237, 0.0015221, 0.01028237, 0.0015221, 0, 0
Line.LV1FMAI125, 0.4838362, 0.08835459, 0.4838362, 0.08835459, 0, 0
Line.LV1FMAI126, 0.0138168, 0.002433499, 0.0138168, 0.002433499, 0, 0
Line.LV1FMAI127, 0.01503051, 0.01128133, 0.01503051, 0.01128133, 0, 0
Line.LV1FMAI128, 0.8098024, 0.1482728, 0.8098024, 0.1482728, 0, 0
Line.LV1FMAI129, 0.1875131, 0.03399627, 0.1875131, 0.03399627, 0, 0
Line.LV1FMAI130, 0.1767725, 0.03214814, 0.1767725, 0.03214814, 0, 0
Line.LV1FMAI131, 0.1050394, 0.01916761, 0.1050394, 0.01916761, 0, 0
Line.LV1FMAI132, 0.8197161, 0.1500069, 0.8197161, 0.1500069, 0, 0
Line.LV1FMAI133, 5.785408, 1.061232, 5.785408, 1.061232, 0, 0
Line.LV1FMAI134, 124.1987, 22.78251, 124.1987, 22.78251, 0, 0
Line.LV1FMAI135, 68.5709, 12.5779, 68.5709, 12.5779, 0, 0
Line.LV1FMAI136, 4.184727, 0.7673994, 4.184727, 0.7673994, 0, 0
Line.LV1FMAI137, 6.25001, 1.146348, 6.25001, 1.146348, 0, 0
Line.LV1FMAI138, 63.25522, 11.60287, 63.25522, 11.60287, 0, 0
Line.LV1FMAI139, 0.001651386, 3.441545E-005, 0.001651386, 3.441545E-005, 0, 0
Line.LV1FMAI140, 2.097368, 0.3845831, 2.097368, 0.3845831, 0, 0
Line.LV1FMAI141, -7.392422E-011, -0.0009146912, -7.392422E-011, -0.0009146912, 0, 0
Line.LV1FMAI142, 0.951008, 0.1742133, 0.951008, 0.1742133, 0, 0
Line.LV1FMAI143, 8.144714, 1.493846, 8.144714, 1.493846, 0, 0
Line.LV1FMAI144, 0.005101572, 0.0006953287, 0.005101572, 0.0006953287, 0, 0
Line.LV1FMAI145, 0.1901117, 0.03459791, 0.1901117, 0.03459791, 0, 0
Line.LV1FMAI146, 108.9211, 19.97982, 108.9211, 19.97982, 0, 0
Line.LV1FMAI147, 2.809729, 0.5149298, 2.809729, 0.5149298, 0, 0
Line.LV1FMAI148, 17.24634, 3.163619, 17.24634, 3.163619, 0, 0
Line.LV1FMAI149, 0.9168263, 0.1680911, 0.9168263, 0.1680911, 0, 0
Line.LV1FMAI150, 8.028727, 1.472753, 8.028727, 1.472753, 0, 0
Line.LV1FMAI151, 33.64469, 6.170748, 33.64469, 6.170748, 0, 0
Line.LV1FMAI152, 19.15046, 3.511359, 19.15046, 3.511359, 0, 0
Line.LV1FMAI153, 1.940543, 0.3555539, 1.940543, 0.3555539, 0, 0
Line.LV1FMAI154, 0.3075365, 0.05599092, 0.3075365, 0.05599092, 0, 0
Line.LV1FMAI155, 0.915429, 0.1678403, 0.915429, 0.1678403, 0, 0
Line.LV1FMAI156, 0.01320738, 0.001634096, 0.01320738, 0.001634096, 0, 0
Line.LV1FMAI157, 0.359493, 0.3358824, 0.359493, 0.3358824, 0, 0
Line.LV1FMAI158, 1.735096, 0.3177882, 1.735096, 0.3177882, 0, 0
Line.LV1FMAI159, 1.972452, 0.3613296, 1.972452, 0.3613296, 0, 0
Line.LV1FMAI160, 0.3580475, 0.06555088, 0.3580475, 0.06555088, 0, 0
Line.LV1FMAI161, 1.520858, 0.2782251, 1.520858, 0.2782251, 0, 0
Line.LV1FMAI162, 0.08029964, 0.01434806, 0.08029964, 0.01434806, 0, 0
Line.LV1FMAI163, 0.02151991, 0.003565328, 0.02151991, 0.003565328, 0, 0
Line.LV1FMAI164, 0.04014957, 0.007173966, 0.04014957, 0.007173966, 0, 0
Line.LV1FMAI165, 0.01075995, 0.001782656, 0.01075995, 0.001782656, 0, 0
Line.LV1FMAI166, 0.03803855, 0.006595561, 0.03803855, 0.006595561, 0, 0
Line.LV1FMAI167, 0.01901916, 0.003297748, 0.01901916, 0.003297748, 0, 0
Line.LV1FMAI168, 0.03034519, 0.00462169, 0.03034519, 0.00462169, 0, 0
Line.LV1FMAI169, 0.8863143, 0.1620038, 0.8863143, 0.1620038, 0, 0
Line.LV1FMAI170, 0.03030328, 0.00461559, 0.03030328, 0.00461559, 0, 0
Line.LV1FMAI171, -3.180785E-011, -0.0009177248, -3.180785E-011, -0.0009177248, 0, 0
Line.LV1FMAI172, 0.006886891, 0.001049004, 0.006886891, 0.001049004, 0, 0
Line.LV1FMAI173, 0.517982, 0.09426823, 0.517982, 0.09426823, 0, 0
Line.LV1FMAI174, 0.05127777, 0.009144208, 0.05127777, 0.009144208, 0, 0
Line.LV1FMAI175, 0.06589223, 0.01187788, 0.06589223, 0.01187788, 0, 0
Line.LV1FMAI176, 0.9514804, 0.1741121, 0.9514804, 0.1741121, 0, 0
Line.LV1FMAI177, 4.029822, 0.7391889, 4.029822, 0.7391889, 0, 0
Line.LV1FMAI178, 16.71513, 3.06598, 16.71513, 3.06598, 0, 0
Line.LV1FMAI179, 0.812161, 0.1484073, 0.812161, 0.1484073, 0, 0
Line.LV1FMAI180, 8.854144E-011, -0.000959825, 8.854144E-011, -0.000959825, 0, 0
Line.LV1FMAI181, 1.333569, 1.266922, 1.333569, 1.266922, 0, 0
Line.LV1FMAI182, 17.78601, 3.262367, 17.78601, 3.262367, 0, 0
Line.LV1FMAI183, 0.02191924, 0.00376237, 0.02191924, 0.00376237, 0, 0
Line.LV1FMAI184, 0.002765074, 0.0004249634, 0.002765074, 0.0004249634, 0, 0
Line.LV1FMAI185, 0.3036763, 0.05541468, 0.3036763, 0.05541468, 0, 0
Line.LV1FMAI186, 0.003075606, 0.0001981584, 0.003075606, 0.0001981584, 0, 0
Line.LV1FMAI187, 1.149165, 0.2105133, 1.149165, 0.2105133, 0, 0
Line.LV1FMAI188, 0.0008166582, 9.177824E-005, 0.0008166582, 9.177824E-005, 0, 0
Line.LV1FMAI189, 0.214496, 0.03898173, 0.214496, 0.03898173, 0, 0
Line.LV1FMAI190, 0.001537812, 9.907893E-005, 0.001537812, 9.907893E-005, 0, 0
Line.LV1FMAI191, 0.1072473, 0.01949071, 0.1072473, 0.01949071, 0, 0
Line.LV1FMAI192, 0.009577516, 0.001390897, 0.009577516, 0.001390897, 0, 0
Line.LV1FMAI193, 0.03911588, 0.006453352, 0.03911588, 0.006453352, 0, 0
Line.LV1FMAI194, 0.006060213, 0.0003893332, 0.006060213, 0.0003893332, 0, 0
Line.LV1FMAI195, 0.01958974, 0.003233069, 0.01958974, 0.003233069, 0, 0
Line.LV1FMAI196, 0.003034739, 0.0001960572, 0.003034739, 0.0001960572, 0, 0
Line.LV1FMAI197, 0.005410453, 0.0002655702, 0.005410453, 0.0002655702, 0, 0
Line.LV1FMAI198, 0.7453708, 0.1360151, 0.7453708, 0.1360151, 0, 0
Line.LV1FMAI199, 0.006785534, 0.0005241571, 0.006785534, 0.0005241571, 0, 0
Line.LV1FMAI200, 0.06109202, 0.01048617, 0.06109202, 0.01048617, 0, 0
...
